/*--------------------------------*- C++ -*----------------------------------*\
  =========                 |
  \\      /  F ield         | OpenFOAM: The Open Source CFD Toolbox
   \\    /   O peration     | Website:  https://openfoam.org
    \\  /    A nd           | Version:  11
     \\/     M anipulation  |
\*---------------------------------------------------------------------------*/
FoamFile
{
    format      ascii;
    class       volScalarField;
    object      T;
}
// * * * * * * * * * * * * * * * * * * * * * * * * * * * * * * * * * * * * * //

dimensions      [0 0 0 1 0 0 0];

internalField   uniform 283.0;

boundaryField
{
    leftWall
    {
        type            fixedValue;
        value           uniform 273.0;
    }

    rightWall
    {
        type            zeroGradient;
    }

    topAndBottom
    {
        type            empty;
    }

    frontAndBack
    {
        type            empty;
    }

}

// ************************************************************************* //
