/*--------------------------------*- C++ -*----------------------------------*\
  =========                 |
  \\      /  F ield         | OpenFOAM: The Open Source CFD Toolbox
   \\    /   O peration     | Website:  https://openfoam.org
    \\  /    A nd           | Version:  11
     \\/     M anipulation  |
\*---------------------------------------------------------------------------*/
FoamFile
{
    format      ascii;
    class       dictionary;
    object      blockMeshDict;
}
// * * * * * * * * * * * * * * * * * * * * * * * * * * * * * * * * * * * * * //

convertToMeters 0.01;

vertices
(
    (0 0 0) 	// 0
    (10 0 0)	// 1
    (10 1 0)	// 2
    (0 1 0)	    // 3
    (0 0 0.1)	// 4
    (10 0 0.1) 	// 5
    (10 1 0.1)	// 6
    (0 1 0.1)	// 7
);

blocks
(
    hex (0 1 2 3 4 5 6 7) (100 10 1) simpleGrading (1 1 1)
);

boundary
(
    inlet
    {
        type patch;
        faces
        (
            (0 4 7 3)
        );
    }
    outlet
    {
        type patch;
        faces
        (
            (2 6 5 1)
        );
    }    
    topWall
    {
        type wall;
        faces
        (
            (6 2 3 7)
        );
    }
    bottomWall
    {
        type wall;
        faces
        (
            (0 1 5 4)
        );
    }    
    frontAndBack
    {
        type empty;
        faces
        (
            (0 3 2 1)
            (4 5 6 7)
        );
    }
);


// ************************************************************************* //
